ModelCases/ISONE_PCM_250bus_case/Data_ISONE_PCM_250bus/branchdata.csv
From_zone,To_zone,from_bus,to_bus,X,Capacity (MW),Loss (%)
NNE,NNE,1,2,0.120624,414.51,0.0
NNE,NNE,2,30,0.0181,1000.0,0.0
NNE,NNE,2,39,0.060198,530.03,0.0
NNE,NNE,2,139,0.023178,530.03,0.0
NNE,NNE,2,181,0.052755,530.03,0.0
NNE,NNE,2,201,0.018748,530.03,0.0
NNE,NNE,3,18,0.158129,316.2,0.0
NNE,NNE,3,181,0.03,400.0,0.0
Maine,Maine,4,75,0.038117,107.32,0.0
Maine,Maine,4,182,0.04,300.0,0.0
Maine,Maine,5,8,0.039331,578.83,0.0
Maine,Maine,5,183,0.046667,150.0,0.0
Maine,Maine,5,184,0.111012,178.87,0.0
Maine,Maine,5,207,0.013276,541.39,0.0
Maine,Maine,6,7,0.14575,107.32,0.0
Maine,Maine,6,31,0.025,1100.0,0.0
Maine,Maine,6,70,0.077688,107.32,0.0
Maine,Maine,6,184,0.014545,550.0,0.0
Maine,Maine,6,185,0.026667,450.0,0.0
Maine,Maine,7,186,0.017143,700.0,0.0
Maine,Maine,8,54,0.00508,665.28,0.0
Maine,Maine,8,187,0.01,700.0,0.0
Maine,Maine,10,11,0.008557,566.01,0.0
Maine,Maine,10,32,0.02,1000.0,0.0
Maine,Maine,10,70,0.067267,324.83,0.0
Maine,Maine,10,188,0.00375,3200.0,0.0
Maine,Maine,11,173,0.124076,237.35,0.0
Maine,Maine,11,189,0.06,200.0,0.0
Maine,Maine,12,11,0.0435,100.0,0.0
Maine,Maine,12,13,0.12,100.0,0.0
Maine,Maine,13,190,0.017908,1060.07,0.0
Maine,Maine,14,15,0.08904,178.87,0.0
Maine,Maine,14,177,0.067761,229.46,0.0
Maine,Maine,14,190,0.011667,600.0,0.0
Maine,Maine,15,61,0.027504,353.36,0.0
Maine,Maine,15,191,0.07,100.0,0.0
Maine,Maine,16,149,0.04695,137.68,0.0
Maine,Maine,16,192,0.04,200.0,0.0
Maine,Maine,16,193,0.048,250.0,0.0
Maine,NNE,17,18,0.194499,137.68,0.0
Maine,Maine,17,145,0.104525,107.32,0.0
Maine,Maine,17,194,0.08,150.0,0.0
ROP,ROP,19,20,0.02,400.0,0.0
ROP,ROP,19,33,0.0142,1000.0,0.0
ROP,ROP,19,96,0.129519,107.32,0.0
ROP,ROP,19,105,0.012761,522.03,0.0
ROP,ROP,19,110,0.023707,350.0,0.0
ROP,ROP,19,118,0.013449,474.7,0.0
ROP,ROP,19,175,0.251624,173.53,0.0
ROP,ROP,19,195,0.08,100.0,0.0
ROP,ROP,19,196,0.12,100.0,0.0
ROP,ROP,20,34,0.018,600.0,0.0
NNE,NNE,21,129,0.035005,187.39,0.0
NNE,NNE,21,130,0.060698,261.01,0.0
NNE,NNE,21,197,0.053333,150.0,0.0
NNE,ROP,21,198,0.06,200.0,0.0
NNE,ROP,21,250,0.003105527691822014,868.25,0.0
ROP,ROP,22,23,0.034482,178.87,0.0
ROP,ROP,22,35,0.0143,1950.0,0.0
ROP,ROP,22,199,0.006667,1050.0,0.0
ROP,ROP,23,24,0.106048,178.87,0.0
ROP,ROP,23,36,0.0272,1000.0,0.0
ROP,ROP,23,90,0.020365,206.75,0.0
ROP,ROP,23,91,0.054395,262.53,0.0
ROP,NNE,24,135,0.004659545097357953,353.36,0.0
ROP,ROP,24,200,0.0175,400.0,0.0
NNE,NNE,25,37,0.0232,1000.0,0.0
NNE,NNE,25,133,0.048676,395.58,0.0
NNE,Maine,25,141,0.01928528771649355,1496.37,0.0
NNE,NNE,25,168,0.045274,178.87,0.0
NNE,NNE,25,201,0.046667,150.0,0.0
SENE,SENE,26,42,0.04949,530.03,0.0
SENE,NNE,26,43,0.009112,896.9481381000412,0.0
SENE,NNE,26,135,0.02994490810303859,530.03,0.0
SENE,NNE,27,135,0.00956056907676532,300.0,0.0
SENE,SENE,27,160,0.054676,178.87,0.0
SENE,SENE,28,77,0.156472,250.0,0.0
SENE,SENE,28,88,0.018601,418.29,0.0
SENE,SENE,28,203,0.16,250.0,0.0
SENE,SENE,28,204,0.12,250.0,0.0
SENE,SENE,29,38,0.0156,1200.0,0.0
SENE,SENE,29,84,0.091679,283.0,0.0
SENE,SENE,29,205,0.010667,750.0,0.0
NNE,NNE,39,43,0.040026,530.03,0.0
NNE,NNE,40,43,0.02314,530.03,0.0
SENE,SENE,42,167,0.049342,530.03,0.0
Maine,Maine,44,55,0.027027,229.46,0.0
Maine,Maine,44,206,0.0175,400.0,0.0
Maine,Maine,45,52,0.008362,652.53,0.0
Maine,Maine,45,212,0.009761,652.53,0.0
Maine,Maine,46,47,0.106284,212.01,0.0
Maine,Maine,46,207,0.017778,450.0,0.0
Maine,Maine,47,63,0.089565,107.32,0.0
Maine,Maine,48,150,0.024436,530.03,0.0
Maine,Maine,49,65,0.037712,474.7,0.0
Maine,Maine,49,208,0.04,200.0,0.0
Maine,Maine,49,209,0.06,200.0,0.0
Maine,Maine,50,65,0.037515,237.35,0.0
Maine,Maine,50,210,0.12,100.0,0.0
Maine,Maine,51,68,0.037344,283.0,0.0
Maine,Maine,51,72,0.007194,304.04,0.0
Maine,Maine,53,57,0.059124,261.01,0.0
Maine,Maine,53,73,0.033438,261.01,0.0
Maine,Maine,53,211,0.018462,650.0,0.0
Maine,Maine,55,61,0.120369,229.46,0.0
Maine,Maine,55,212,0.046667,150.0,0.0
Maine,Maine,57,60,0.042258,107.32,0.0
Maine,Maine,58,62,0.014851,530.03,0.0
Maine,Maine,58,66,0.010038,530.03,0.0
Maine,Maine,59,213,0.006172,530.03,0.0
Maine,Maine,60,63,0.040671,107.32,0.0
Maine,Maine,60,64,0.040347,237.35,0.0
Maine,Maine,61,143,0.016137,395.58,0.0
Maine,Maine,61,213,0.023333,300.0,0.0
Maine,Maine,63,75,0.046454,261.01,0.0
Maine,Maine,64,214,0.017143,700.0,0.0
Maine,Maine,66,71,0.008811,530.03,0.0
Maine,Maine,67,68,0.026509,283.0,0.0
Maine,Maine,68,215,0.017143,700.0,0.0
Maine,Maine,69,247,0.020317,530.03,0.0
Maine,NNE,71,76,0.009863,530.03,0.0
Maine,Maine,72,73,0.004586,424.03,0.0
Maine,Maine,74,216,0.004357,530.03,0.0
Maine,Maine,75,216,0.03,400.0,0.0
NNE,NNE,76,238,0.047034,868.25,0.0
SENE,SENE,77,84,0.069744,304.04,0.0
SENE,SENE,77,89,0.099621,212.01,0.0
SENE,SENE,77,217,0.16,250.0,0.0
SENE,SENE,77,218,0.12,100.0,0.0
SENE,SENE,78,79,0.097781,511.35,0.0
SENE,SENE,78,167,0.038942,530.03,0.0
SENE,SENE,79,87,0.052075,530.03,0.0
SENE,SENE,80,81,0.042908,530.03,0.0
SENE,SENE,80,87,0.071801,696.37,0.0
SENE,SENE,81,82,0.053845,530.03,0.0
SENE,SENE,82,83,0.053138,530.03,0.0
SENE,SENE,83,219,0.034736,530.03,0.0
SENE,SENE,84,219,0.011429,1050.0,0.0
SENE,SENE,85,154,0.084819,289.22,0.0
SENE,SENE,86,88,0.145633,137.68,0.0
SENE,SENE,86,169,0.12958,187.39,0.0
SENE,SENE,86,220,0.032,250.0,0.0
SENE,SENE,88,221,0.24,50.0,0.0
ROP,ROP,92,115,0.010634,530.03,0.0
ROP,ROP,93,101,0.00796,530.03,0.0
ROP,ROP,93,148,0.003478,530.03,0.0
ROP,ROP,93,222,0.009099,530.03,0.0
ROP,ROP,94,95,0.044873,124.05,0.0
ROP,ROP,94,102,0.029756,237.35,0.0
ROP,ROP,94,103,0.026199,712.05,0.0
ROP,ROP,95,96,0.041149,107.32,0.0
ROP,ROP,95,222,0.06,200.0,0.0
ROP,ROP,96,223,0.034286,350.0,0.0
ROP,ROP,98,146,0.007545,593.37,0.0
ROP,ROP,98,249,0.006678,812.08,0.0
ROP,ROP,99,138,0.006265,530.03,0.0
ROP,ROP,99,230,0.004982,530.03,0.0
Maine,Maine,100,140,0.029371,261.01,0.0
ROP,ROP,102,114,0.025865,250.0,0.0
ROP,ROP,103,224,0.026667,450.0,0.0
ROP,ROP,104,136,0.01067,157.52,0.0
ROP,ROP,104,225,0.053333,150.0,0.0
ROP,ROP,105,136,0.014401,283.0,0.0
ROP,ROP,106,109,0.063816,107.32,0.0
ROP,ROP,106,119,0.051907,107.32,0.0
ROP,ROP,106,226,0.06,200.0,0.0
ROP,ROP,107,119,0.036986,107.32,0.0
ROP,ROP,107,227,0.048,250.0,0.0
ROP,SENE,109,122,0.070386,107.32,0.0
ROP,ROP,109,228,0.026667,300.0,0.0
ROP,ROP,112,152,0.027984,107.32,0.0
ROP,ROP,112,229,0.02,400.0,0.0
ROP,ROP,113,152,0.024588,212.01,0.0
ROP,ROP,114,136,0.030289,250.0,0.0
ROP,ROP,114,230,0.048,250.0,0.0
SENE,SENE,116,120,0.02306,262.53,0.0
SENE,SENE,116,123,0.012815,206.75,0.0
SENE,SENE,117,122,0.044985,212.01,0.0
SENE,SENE,117,164,0.08087,250.0,0.0
SENE,SENE,117,231,0.024,500.0,0.0
ROP,ROP,118,119,0.01693,187.39,0.0
ROP,ROP,118,147,0.019367,347.3,0.0
ROP,ROP,119,232,0.08,100.0,0.0
ROP,ROP,119,233,0.06,200.0,0.0
SENE,SENE,120,121,0.010693,262.53,0.0
SENE,SENE,120,234,0.02,350.0,0.0
SENE,SENE,123,165,0.046024,506.73,0.0
NNE,NNE,124,127,0.029058,178.87,0.0
NNE,NNE,124,142,0.011776,262.53,0.0
NNE,NNE,125,129,0.052625,107.32,0.0
NNE,NNE,125,131,0.03939,173.53,0.0
NNE,NNE,125,235,0.08,100.0,0.0
NNE,NNE,125,236,0.026667,450.0,0.0
NNE,NNE,126,127,0.018468,178.87,0.0
NNE,SENE,127,163,0.047192,444.2688049646318,0.0
NNE,NNE,128,130,0.08824,107.32,0.0
NNE,Maine,128,145,0.092623,173.53,0.0
NNE,ROP,131,152,0.035197,250.0,0.0
NNE,NNE,131,237,0.032,250.0,0.0
NNE,NNE,132,133,0.029956,178.87,0.0
NNE,NNE,132,134,0.015659,206.75,0.0
NNE,NNE,132,142,0.022275,506.73,0.0
NNE,NNE,132,238,0.00875,800.0,0.0
NNE,NNE,135,151,0.006171,868.25,0.0
NNE,NNE,135,153,0.002803,760.09,0.0
NNE,Maine,135,177,0.00962145490264205,353.36,0.0
NNE,ROP,135,200,0.026499309835787487,530.03,0.0
NNE,Maine,135,202,0.04250909189696141,530.03,0.0
NNE,Maine,135,202,0.013772430923234682,300.0,0.0
NNE,Maine,135,245,0.021032021876805508,300.0,0.0
NNE,Maine,135,245,0.007244186975809843,530.03,0.0
NNE,ROP,135,249,0.012421971255997807,200.0,0.0
NNE,NNE,137,151,0.00571,530.03,0.0
Maine,Maine,140,171,0.050336,212.01,0.0
Maine,Maine,140,239,0.015,800.0,0.0
Maine,Maine,143,144,0.018373,435.02,0.0
Maine,Maine,145,149,0.090121,107.32,0.0
ROP,NNE,146,151,0.001832,1305.07,0.0
ROP,ROP,146,176,0.015408,530.03,0.0
ROP,ROP,147,152,0.040694,261.01,0.0
ROP,ROP,147,240,0.04,200.0,0.0
SENE,SENE,154,160,0.060072,312.32,0.0
SENE,SENE,154,241,0.069017,289.22,0.0
SENE,SENE,155,169,0.073917,676.43,0.0
SENE,SENE,156,244,0.024148,530.03,0.0
SENE,SENE,156,246,0.010954,593.37,0.0
SENE,SENE,157,166,0.089096,107.32,0.0
SENE,SENE,157,169,0.0965,347.3,0.0
SENE,SENE,157,241,0.02,400.0,0.0
SENE,SENE,158,166,0.081263,283.0,0.0
Maine,Maine,159,245,0.035352,530.03,0.0
SENE,SENE,161,166,0.096443,212.01,0.0
SENE,SENE,161,242,0.16,50.0,0.0
SENE,SENE,162,243,0.017778,707.51,0.0
SENE,SENE,162,244,0.005749,530.03,0.0
SENE,SENE,163,243,0.015556,450.0,0.0
SENE,SENE,164,166,0.099226,212.01,0.0
SENE,SENE,165,244,0.006364,1100.0,0.0
SENE,NNE,166,135,0.01896797812319449,300.0,0.0
SENE,SENE,169,246,0.018462,650.0,0.0
Maine,Maine,170,171,0.033624,107.32,0.0
Maine,Maine,170,172,0.077849,212.01,0.0
Maine,Maine,172,173,0.03532,107.32,0.0
Maine,Maine,172,247,0.03,400.0,0.0
Maine,NNE,174,21,0.005010472308177986,868.25,0.0
Maine,Maine,174,180,0.008773,530.03,0.0
ROP,ROP,175,248,0.021818,550.0,0.0
Maine,NNE,177,135,0.0225780287440022,200.0,0.0
ROP,ROP,178,179,0.017516,107.32,0.0
ROP,ROP,178,250,0.06,200.0,0.0
NNE,Maine,181,182,0.095349,524.39,0.0
Maine,Maine,182,48,0.023699,530.03,0.0
Maine,Maine,182,74,0.003455,530.03,0.0
Maine,Maine,182,183,0.02315,530.03,0.0
Maine,Maine,182,190,0.0571,530.03,0.0
Maine,Maine,183,52,0.021637,707.51,0.0
Maine,Maine,184,15,0.042042,541.39,0.0
Maine,Maine,184,185,0.14,50.0,0.0
Maine,Maine,185,56,0.009601,707.51,0.0
Maine,Maine,185,58,0.015152,530.03,0.0
Maine,Maine,185,189,0.016354,1246.5,0.0
Maine,Maine,185,214,0.018449,760.09,0.0
Maine,Maine,186,187,0.015578,652.53,0.0
Maine,Maine,186,209,0.009658,530.03,0.0
Maine,Maine,186,211,0.016494,652.53,0.0
Maine,Maine,186,215,0.00592,707.51,0.0
Maine,Maine,187,9,0.047422,530.03,0.0
Maine,Maine,188,13,0.001949,1045.73,0.0
Maine,Maine,188,189,0.001674,1060.07,0.0
Maine,Maine,188,190,0.017964,1186.75,0.0
Maine,Maine,189,69,0.007735,530.03,0.0
Maine,Maine,189,239,0.054523,530.03,0.0
Maine,NNE,190,76,0.009955,530.03,0.0
Maine,Maine,190,174,0.013584,1060.07,0.0
Maine,Maine,191,56,0.008151,1246.5,0.0
Maine,Maine,191,59,0.006385,530.03,0.0
Maine,Maine,191,193,0.022617,652.53,0.0
Maine,Maine,192,61,0.025655,312.32,0.0
Maine,Maine,192,193,0.07,100.0,0.0
Maine,NNE,192,197,0.094672,178.87,0.0
Maine,NNE,193,135,0.0350676901642125,530.03,0.0
Maine,Maine,193,194,0.014398,530.03,0.0
Maine,Maine,194,202,0.090882,530.03,0.0
ROP,ROP,195,108,0.015518,435.02,0.0
ROP,ROP,195,196,0.00875,800.0,0.0
ROP,ROP,195,225,0.010719,178.87,0.0
ROP,ROP,195,229,0.026229,312.32,0.0
ROP,ROP,195,240,0.014303,178.87,0.0
ROP,NNE,196,25,0.014128712283506447,1496.37,0.0
ROP,ROP,196,111,0.004536,530.03,0.0
ROP,ROP,196,138,0.006293,530.03,0.0
ROP,ROP,196,198,0.035176,530.03,0.0
ROP,ROP,196,233,0.004013,530.03,0.0
NNE,NNE,197,134,0.026623,178.87,0.0
NNE,ROP,197,198,0.046667,150.0,0.0
NNE,NNE,197,235,0.034927,178.87,0.0
ROP,ROP,198,199,0.059379,530.03,0.0
ROP,ROP,199,93,0.012435,530.03,0.0
ROP,ROP,199,115,0.007492,530.03,0.0
ROP,ROP,199,148,0.009081,593.37,0.0
ROP,ROP,200,97,0.014828,868.25,0.0
ROP,ROP,200,248,0.00425,530.03,0.0
ROP,ROP,200,249,0.006199,652.53,0.0
ROP,ROP,200,250,0.001565,707.51,0.0
NNE,NNE,201,238,0.033478,530.03,0.0
Maine,Maine,202,41,0.018804,530.03,0.0
Maine,Maine,202,159,0.024117,530.03,0.0
SENE,SENE,203,204,0.07,100.0,0.0
SENE,SENE,203,205,0.079203,353.36,0.0
SENE,SENE,203,220,0.058761,289.22,0.0
SENE,SENE,204,156,0.043418,530.03,0.0
SENE,SENE,204,219,0.026021,530.03,0.0
SENE,SENE,204,221,0.003516,530.03,0.0
SENE,SENE,205,217,0.059211,506.73,0.0
Maine,Maine,206,45,0.002856,530.03,0.0
Maine,Maine,206,52,0.006662,707.51,0.0
Maine,Maine,208,55,0.018912,206.75,0.0
Maine,Maine,208,209,0.14,50.0,0.0
Maine,Maine,209,210,0.008004,707.51,0.0
Maine,Maine,210,74,0.011415,623.25,0.0
Maine,Maine,212,209,0.008143,530.03,0.0
SENE,SENE,217,85,0.043533,471.67,0.0
SENE,SENE,217,218,0.07,250.0,0.0
SENE,SENE,218,219,0.011849,530.03,0.0
SENE,SENE,219,167,0.072777,530.03,0.0
ROP,ROP,222,97,0.01338,530.03,0.0
ROP,ROP,222,99,0.008872,530.03,0.0
ROP,ROP,223,97,0.006844,530.03,0.0
ROP,ROP,224,230,0.011166,530.03,0.0
ROP,ROP,226,111,0.003487,530.03,0.0
ROP,ROP,227,111,0.00507,530.03,0.0
ROP,SENE,227,234,0.007234,530.03,0.0
ROP,SENE,228,120,0.013115,831.0,0.0
ROP,NNE,228,126,0.018895,353.36,0.0
ROP,ROP,228,232,0.025853,178.87,0.0
ROP,NNE,229,237,0.010403,178.87,0.0
SENE,SENE,231,234,0.014905,530.03,0.0
SENE,SENE,231,244,0.012247,812.08,0.0
ROP,ROP,232,233,0.035,200.0,0.0
ROP,ROP,232,240,0.005843,196.0,0.0
NNE,NNE,235,236,0.02,350.0,0.0
NNE,NNE,235,237,0.013979,415.5,0.0
NNE,NNE,236,153,0.008649,530.03,0.0
NNE,NNE,236,238,0.020868,530.03,0.0
Maine,Maine,239,141,0.006824,623.25,0.0
SENE,SENE,241,163,0.041828,178.87,0.0
SENE,SENE,242,154,0.145022,178.87,0.0
SENE,NNE,243,135,0.0026978130241901567,530.03,0.0
